data/ENWL/enwl_phase_to_neutral_embedded/network_13/Feeder_3/LineCode.txt
! Subset of available target linecodes, which are closest to the original ones in terms of positive sequence impedance
! -------------------------------------------------------------------------------------------------------------------------------------------------------------------------------------------------
! original name: BS 5467 1997 table 10 16 (50 Hz)
New LineCode.LC1 nphases=3 Units=km
~ Rmatrix=(2.303594 1.151967 1.1516279999999999 | 1.151967 2.303933 1.151967 | 1.151628 1.151967 2.3035940000000004)
~ Xmatrix=(0.16001100000000013 0.10397500000000004 0.05604100000000001 | 0.10397500000000004 0.20795099999999989 0.10397199999999995 | 0.05604100000000001 0.10397199999999995 0.16000599999999998)
~ Cmatrix=(0.0 0.0 0.0 | 0.0 0.0 0.0 | 0.0 0.0 0.0)

! original name: Waveform 4-core 300 IEC 60287 (50 Hz)
New LineCode.LC8 nphases=3 Units=km
~ Rmatrix=(0.21331199999999995 0.10665599999999997 0.10665599999999997 | 0.10665599999999997 0.21331199999999995 0.10665599999999997 | 0.10665599999999997 0.10665599999999997 0.21331199999999995)
~ Xmatrix=(0.12119600000000008 0.082565 0.03863100000000008 | 0.082565 0.16513 0.082565 | 0.03863100000000008 0.082565 0.12119600000000008)
~ Cmatrix=(0.0 0.0 0.0 | 0.0 0.0 0.0 | 0.0 0.0 0.0)

! original name: Waveform 4-core 95 IEC 60287 (50 Hz)
New LineCode.LC9 nphases=3 Units=km
~ Rmatrix=(0.6456139999999999 0.32280699999999996 0.32280699999999996 | 0.32280699999999996 0.6456139999999999 0.32280699999999996 | 0.32280699999999996 0.32280699999999996 0.6456139999999999)
~ Xmatrix=(0.1230420000000001 0.08350800000000003 0.03953400000000007 | 0.08350800000000003 0.16701600000000005 0.08350800000000003 | 0.03953400000000007 0.08350800000000003 0.1230420000000001)
~ Cmatrix=(0.0 0.0 0.0 | 0.0 0.0 0.0 | 0.0 0.0 0.0)
! -------------------------------------------------------------------------------------------------------------------------------------------------------------------------------------------------